# File generated by Flopy version 3.5.0.dev0 on 02/29/2024 at 15:52:48.
BEGIN options
  SAVE_FLOWS
END options

BEGIN packages
  DIS6  gwf_chd01.nc  dis
  IC6  gwf_chd01.nc  ic
  NPF6  gwf_chd01.nc  npf
  CHD6  gwf_chd01.nc  chd-1
  OC6  gwf_chd01.oc  oc
END packages

