# File generated by Flopy version 3.5.0.dev0 on 02/22/2024 at 13:14:59.
BEGIN options
  SAVE_FLOWS
END options

BEGIN packages
  DIS6  ref_tst_xplatform2_2.nc  dis
  IC6  ref_tst_xplatform2_2.nc  ic
  NPF6  ref_tst_xplatform2_2.nc  npf
  CHD6  ref_tst_xplatform2_2.nc  chd-1
  OC6  gwf_chd01.oc  oc
END packages

