# File generated by Flopy version 3.5.0.dev0 on 02/22/2024 at 13:14:59.
BEGIN options
  PRINT_INPUT
END options

BEGIN timing
  TDIS6  chd01.tdis
END timing

BEGIN models
  gwf6  gwf_chd01.nam  gwf_chd01
END models

BEGIN exchanges
END exchanges

BEGIN solutiongroup  1
  ims6  gwf_chd01.ims  gwf_chd01
END solutiongroup  1

