# File generated by Flopy version 3.5.0.dev0 on 02/21/2024 at 06:48:09.
BEGIN options
END options

BEGIN dimensions
  NPER  1
END dimensions

BEGIN perioddata
       1.00000000  1       1.00000000
END perioddata

