# File generated by Flopy version 3.6.0 on 02/21/2024 at 08:20:53.
BEGIN options
  BUDGET  FILEOUT  mymodel.bud
  HEAD  FILEOUT  mymodel.hds
END options

BEGIN period  1
  SAVE  HEAD  ALL
  SAVE  BUDGET  ALL
END period  1

