# File generated by Flopy version 3.5.0.dev0 on 02/21/2024 at 06:48:09.
BEGIN options
  SAVE_FLOWS
END options

BEGIN packages
  DIS6  mymodel.nc  dis
  IC6  mymodel.nc  ic
  NPF6  mymodel.nc  npf
  CHD6  mymodel.nc  chd_0
  OC6  mymodel.oc  oc
END packages

