# File generated by Flopy version 3.6.0 on 02/21/2024 at 08:20:53.
BEGIN options
END options

