# File generated by Flopy version 3.6.0 on 02/21/2024 at 08:20:53.
BEGIN options
END options

BEGIN dimensions
  MAXBOUND  2
END dimensions

BEGIN period  1
  1 1 1 1.00000000E+00
  1 10 10 0.00000000E+00
END period  1

