# File generated by Flopy version 3.5.0.dev0 on 02/29/2024 at 16:48:47.
BEGIN options
  BUDGET  FILEOUT  mymodel.bud
  HEAD  FILEOUT  mymodel.hds
END options

BEGIN period  1
  SAVE  HEAD  ALL
  SAVE  BUDGET  ALL
END period  1

