# File generated by Flopy version 3.5.0.dev0 on 02/29/2024 at 16:48:47.
BEGIN options
END options

BEGIN dimensions
  NPER  1
END dimensions

BEGIN perioddata
       1.00000000  1       1.00000000
END perioddata

