# File generated by Flopy version 3.6.0 on 02/21/2024 at 08:20:53.
BEGIN griddata
  strt
    CONSTANT       1.00000000
END griddata

