# File generated by Flopy version 3.5.0.dev0 on 02/21/2024 at 06:48:09.
BEGIN options
END options

