# File generated by Flopy version 3.5.0.dev0 on 02/29/2024 at 16:48:47.
BEGIN options
END options

